%nprocshared=3
%mem=12GB
%chk=compuesto2.chk
# opt b3lyp/sto-3g nosymm

Title Card Required

0 1
 O(PDBName=O1,ResName=UNL,ResNum=1)                   -3.71700000   -3.36400000    0.87200000
 C(PDBName=C1,ResName=UNL,ResNum=1)                   -2.48600000   -1.27100000    0.90800000
 C(PDBName=C2,ResName=UNL,ResNum=1)                   -1.14900000   -2.01900000    1.08100000
 C(PDBName=C3,ResName=UNL,ResNum=1)                    0.73700000   -0.83600000    2.55400000
 C(PDBName=C4,ResName=UNL,ResNum=1)                    1.48800000    0.45500000    2.54900000
 C(PDBName=C5,ResName=UNL,ResNum=1)                    1.70300000    0.79200000    4.05400000
 C(PDBName=C6,ResName=UNL,ResNum=1)                    1.91500000   -0.53000000    4.87000000
 N(PDBName=N1,ResName=UNL,ResNum=1)                    2.69500000   -1.41100000    4.05400000
 C(PDBName=C7,ResName=UNL,ResNum=1)                    1.77700000   -1.93300000    2.99000000
 C(PDBName=C8,ResName=UNL,ResNum=1)                   -2.24000000    0.02800000    0.11700000
 C(PDBName=C9,ResName=UNL,ResNum=1)                   -3.05300000    1.15000000    0.34200000
 C(PDBName=C10,ResName=UNL,ResNum=1)                  -2.82800000    2.33200000   -0.37900000
 C(PDBName=C11,ResName=UNL,ResNum=1)                  -1.79100000    2.39200000   -1.31900000
 C(PDBName=C12,ResName=UNL,ResNum=1)                  -0.97800000    1.27300000   -1.54100000
 C(PDBName=C13,ResName=UNL,ResNum=1)                   0.16700000    1.34600000   -2.57100000
 C(PDBName=C14,ResName=UNL,ResNum=1)                   0.98100000    0.22600000   -2.80300000
 C(PDBName=C15,ResName=UNL,ResNum=1)                   2.01600000    0.29500000   -3.74700000
 C(PDBName=C16,ResName=UNL,ResNum=1)                   2.24100000    1.48300000   -4.45700000
 C(PDBName=C17,ResName=UNL,ResNum=1)                   1.43100000    2.60500000   -4.22000000
 C(PDBName=C18,ResName=UNL,ResNum=1)                   0.39300000    2.53600000   -3.27500000
 C(PDBName=C19,ResName=UNL,ResNum=1)                  -1.20200000    0.08700000   -0.82700000
 C(PDBName=C20,ResName=UNL,ResNum=1)                       -3.48900000   -2.15600000    0.13900000
 C(PDBName=C21,ResName=UNL,ResNum=1)                        0.16600000   -1.21800000    1.17700000
 O(PDBName=O2,ResName=UNL,ResNum=1)                       -1.12900000   -3.27600000    1.14400000
 O(PDBName=O3,ResName=UNL,ResNum=1)                        0.55500000    1.43900000    4.63400000
 H(PDBName=H1,ResName=UNL,ResNum=1)                   -4.07700000   -3.15100000    1.73700000
 H(PDBName=H2,ResName=UNL,ResNum=1)                   -2.89200000   -1.03500000    1.87200000
 H(PDBName=H5,ResName=UNL,ResNum=1)                   -0.06900000   -0.73700000    3.25800000
 H(PDBName=H6,ResName=UNL,ResNum=1)                    0.97000000    1.26900000    2.07800000
 H(PDBName=H7,ResName=UNL,ResNum=1)                    2.41400000    0.28100000    2.02900000
 H(PDBName=H9,ResName=UNL,ResNum=1)                    2.55200000    1.44800000    4.10200000
 H(PDBName=H10,ResName=UNL,ResNum=1)                   0.98400000   -1.02200000    5.06100000
 H(PDBName=H11,ResName=UNL,ResNum=1)                   2.38500000   -0.29300000    5.80400000
 H(PDBName=H12,ResName=UNL,ResNum=1)                   3.45000000   -0.86800000    3.67200000
 H(PDBName=H13,ResName=UNL,ResNum=1)                   1.21600000   -2.78000000    3.34000000
 H(PDBName=H14,ResName=UNL,ResNum=1)                   2.40000000   -2.22400000    2.16500000
 H(PDBName=H15,ResName=UNL,ResNum=1)                  -3.84200000    1.10600000    1.06000000
 H(PDBName=H16,ResName=UNL,ResNum=1)                  -3.44800000    3.18900000   -0.21000000
 H(PDBName=H17,ResName=UNL,ResNum=1)                  -1.62200000    3.29500000   -1.86800000
 H(PDBName=H18,ResName=UNL,ResNum=1)                   0.81300000   -0.68100000   -2.26100000
 H(PDBName=H19,ResName=UNL,ResNum=1)                   2.63900000   -0.56100000   -3.92700000
 H(PDBName=H20,ResName=UNL,ResNum=1)                   3.03000000    1.53200000   -5.17900000
 H(PDBName=H21,ResName=UNL,ResNum=1)                   1.60500000    3.51400000   -4.76000000
 H(PDBName=H22,ResName=UNL,ResNum=1)                  -0.22700000    3.39100000   -3.09200000
 H(PDBName=H23,ResName=UNL,ResNum=1)                  -0.58300000   -0.77000000   -1.00300000
 H(PDBName=H24,ResName=UNL,ResNum=1)                       -4.41400000   -1.62900000    0.02500000
 H(PDBName=H24,ResName=UNL,ResNum=1)                       -3.09100000   -2.39300000   -0.82300000
 H(PDBName=H24,ResName=UNL,ResNum=1)                        0.71800000    1.63600000    5.55800000


